Circuit: *** SPICE deck for cell oai_sim{lay} from library Tarea_2_VLSI

Ignoring BSIM parameter XL
Ignoring BSIM parameter XW
Ignoring BSIM parameter XL
Ignoring BSIM parameter XW
Limiting rise time of source vin to 1e-010
Limiting fall time of source vin to 1e-010
Direct Newton iteration for .op point succeeded.

Date: Tue Oct 13 00:00:18 2015
Total elapsed time: 0.212 seconds.

tnom = 27
temp = 27
method = modified trap
totiter = 2206
traniter = 2197
tranpoints = 1082
accept = 1072
rejected = 10
matrix size = 8
fillins = 0
solver = Normal
Matrix Compiler1: 408 bytes object code size  0.2/0.2/[0.1]
Matrix Compiler2: 712 bytes object code size  0.3/0.2/[0.1]


