Circuit: *** SPICE deck for cell Or-Or-And-Inv{sch} from library Tarea_2_VLSI

Ignoring BSIM parameter XL
Ignoring BSIM parameter XW
Ignoring BSIM parameter XL
Ignoring BSIM parameter XW
Limiting rise time of source vin to 1e-010
Limiting fall time of source vin to 1e-010
Warning: Pd = 0 is less than W.
Warning: Ps = 0 is less than W.
Warning: Pd = 0 is less than W.
Warning: Ps = 0 is less than W.
Warning: Pd = 0 is less than W.
Warning: Ps = 0 is less than W.
Warning: Pd = 0 is less than W.
Warning: Ps = 0 is less than W.
Direct Newton iteration for .op point succeeded.

Date: Sat Oct 10 19:03:28 2015
Total elapsed time: 0.130 seconds.

tnom = 27
temp = 27
method = modified trap
totiter = 2240
traniter = 2225
tranpoints = 1082
accept = 1072
rejected = 10
matrix size = 9
fillins = 0
solver = Normal
Matrix Compiler1:      25 opcodes  0.3/[0.1]/0.1
Matrix Compiler2: 801 bytes object code size  0.2/0.2/[0.2]


