Circuit: *** SPICE deck for cell Or-Or-And-Inv{sch} from library Tarea_2_VLSI

Ignoring BSIM parameter XL
Ignoring BSIM parameter XW
Ignoring BSIM parameter XL
Ignoring BSIM parameter XW
Limiting rise time of source vin to 1e-010
Limiting fall time of source vin to 1e-010
WARNING: Node B is floating.
WARNING: Node C is floating.
WARNING: Node D is floating.

Warning: Pd = 0 is less than W.
Warning: Ps = 0 is less than W.
Warning: Pd = 0 is less than W.
Warning: Ps = 0 is less than W.
Singular matrix:  Check node d
   Iteration No. 1
Direct Newton iteration failed to find .op point.  (Use ".option noopiter" to skip.)
Starting Gmin stepping
Gmin = 10
Gmin = 1.07374
Gmin = 0.115292
Gmin = 0.0123794
Gmin = 0.00132923
Gmin = 0.000142725
Gmin = 1.5325e-005
Gmin = 1.6455e-006
Gmin = 1.76685e-007
Gmin = 1.89714e-008
Gmin = 2.03704e-009
Gmin = 2.18725e-010
Gmin = 2.34854e-011
Gmin = 2.52173e-012
Gmin = 2.70769e-013
Singular matrix:  Check node d
   Iteration No. 2
Gmin = 0
Singular matrix:  Check node d
   Iteration No. 1
Gmin stepping failed

Starting source stepping with srcstepmethod=0
Singular matrix:  Check node d
   Iteration No. 1
Singular matrix:  Check node d
   Iteration No. 2
Could not converge to DC with sources off!
Starting source stepping with srcstepmethod=1
Singular matrix:  Check node d
   Iteration No. 1
Source Step = 3.0303%
Source Step = 33.3333%
Source Step = 63.6364%
Source Step = 93.9394%
Source stepping succeeded in finding the operating point.


Date: Mon Oct 12 19:06:30 2015
Total elapsed time: 0.173 seconds.

tnom = 27
temp = 27
method = modified trap
totiter = 3045
traniter = 2206
tranpoints = 1082
accept = 1072
rejected = 10
matrix size = 11
fillins = 10
solver = Normal
Matrix Compiler1: 1.55 KB object code size  0.6/0.6/[0.3]
Matrix Compiler2: off  [0.3]/0.4/0.4


