Circuit: *** SPICE deck for cell Peor_caso_pmos{sch} from library Tarea_2_VLSI

Ignoring BSIM parameter XL
Ignoring BSIM parameter XW
Ignoring BSIM parameter XL
Ignoring BSIM parameter XW
Limiting rise time of source vin to 1e-010
Limiting fall time of source vin to 1e-010
WARNING: Node NET@30 is floating.

Warning: Pd = 0 is less than W.
Warning: Ps = 0 is less than W.
Warning: Pd = 0 is less than W.
Warning: Ps = 0 is less than W.
Warning: Pd = 0 is less than W.
Warning: Ps = 0 is less than W.
Warning: Pd = 0 is less than W.
Warning: Ps = 0 is less than W.
Direct Newton iteration for .op point succeeded.

Date: Sun Oct 11 11:21:48 2015
Total elapsed time: 0.234 seconds.

tnom = 27
temp = 27
method = modified trap
totiter = 2307
traniter = 2295
tranpoints = 1090
accept = 1078
rejected = 12
matrix size = 10
fillins = 0
solver = Normal
Matrix Compiler1: 686 bytes object code size  0.3/0.2/[0.0]
Matrix Compiler2: 1004 bytes object code size  0.2/0.4/[0.2]


