Circuit: *** SPICE deck for cell NMOS{sch} from library R_PMOS_NMOS

Ignoring BSIM parameter XL
Ignoring BSIM parameter XW
Warning: Pd = 0 is less than W.
Warning: Ps = 0 is less than W.
Direct Newton iteration for .op point succeeded.

Date: Tue Sep 15 15:56:02 2015
Total elapsed time: 0.021 seconds.

tnom = 27
temp = 27
method = modified trap
totiter = 2148
traniter = 2144
tranpoints = 1073
accept = 1069
rejected = 4
matrix size = 6
fillins = 0
solver = Normal
Matrix Compiler1: 236 bytes object code size  0.2/0.2/[0.1]
Matrix Compiler2: 364 bytes object code size  0.2/0.2/[0.2]


