Circuit: *** SPICE deck for cell PMOS{sch} from library R_PMOS_NMOS

Ignoring BSIM parameter XL
Ignoring BSIM parameter XW
Warning: Pd = 0 is less than W.
Warning: Ps = 0 is less than W.

Date: Tue Sep 15 15:54:20 2015
Total elapsed time: 0.228 seconds.

tnom = 27
temp = 27
method = trap
totiter = 3304
traniter = 0
tranpoints = 0
accept = 0
rejected = 0
matrix size = 8
fillins = 0
solver = Normal
Matrix Compiler1: 390 bytes object code size  0.2/0.2/[0.1]
Matrix Compiler2: 540 bytes object code size  0.2/0.2/[0.2]


