Circuit: *** SPICE deck for cell NEWFlip_Flop{lay} from library Tarea_3_VLSI

Ignoring BSIM parameter XL
Ignoring BSIM parameter XW
Ignoring BSIM parameter XL
Ignoring BSIM parameter XW
Limiting rise time of source vin2 to 2e-009
Limiting fall time of source vin2 to 2e-009
Limiting rise time of source vin to 2e-009
Limiting fall time of source vin to 2e-009
Direct Newton iteration for .op point succeeded.

Date: Sun Nov 01 16:03:32 2015
Total elapsed time: 0.180 seconds.

tnom = 27
temp = 27
method = modified trap
totiter = 2329
traniter = 2315
tranpoints = 1109
accept = 1089
rejected = 20
matrix size = 16
fillins = 4
solver = Normal
Thread vector: 44.8/25.7[2] 8.1/5.6[2] 1.6/1.4[2] 0.2/0.6[1]  2592/500
Matrix Compiler1: 1.17 KB object code size  0.5/0.3/[0.2]
Matrix Compiler2:     138 opcodes  0.3/[0.3]/0.3


