Circuit: *** SPICE deck for cell Flip_Flop{lay} from library Tarea_3_VLSI

Ignoring BSIM parameter XL
Ignoring BSIM parameter XW
Ignoring BSIM parameter XL
Ignoring BSIM parameter XW
Limiting rise time of source vin2 to 2e-009
Limiting fall time of source vin2 to 2e-009
Limiting rise time of source vin to 2e-009
Limiting fall time of source vin to 2e-009
Direct Newton iteration for .op point succeeded.

Date: Sat Oct 31 01:08:59 2015
Total elapsed time: 0.182 seconds.

tnom = 27
temp = 27
method = modified trap
totiter = 2309
traniter = 2294
tranpoints = 1102
accept = 1084
rejected = 18
matrix size = 16
fillins = 4
solver = Normal
Thread vector: 37.3/32.4[2] 8.3/4.8[2] 1.7/1.7[1] 0.2/0.6[1]  2592/500
Matrix Compiler1: 1.17 KB object code size  0.6/0.4/[0.2]
Matrix Compiler2: 1.87 KB object code size  0.5/0.5/[0.4]


