Circuit: *** SPICE deck for cell master{sch} from library Tarea_3_VLSI

