Circuit: *** SPICE deck for cell Inversor_dinamico{sch} from library Tarea_1_VLSI

Error on line 9 : mnmos@0 out in gnd gnd n l=0.18u w=1.08u
	 Unable to find definition of model "w"
	
	* Error:  No unlabeled parameter permitted for MOSFET's
Error on line 10 : mpmos@0 vdd in out vdd p l=0.18u w=2.16u
	 Unable to find definition of model "w"
	
	* Error:  No unlabeled parameter permitted for MOSFET's

Date: Sat Sep 12 09:46:03 2015
Total elapsed time: 6.275 seconds.

tnom = 27
temp = 27
method = trap
totiter = 6627
traniter = 0
tranpoints = 0
accept = 0
rejected = 0
matrix size = 5
fillins = 0
solver = Normal
Matrix Compiler1: 204 bytes object code size  0.0/0.1/[0.0]
Matrix Compiler2: 311 bytes object code size  0.1/0.1/[0.0]


