Circuit: *** SPICE deck for cell Inversor_estatico{sch} from library Tarea_1_VLSI

Ignoring BSIM parameter XL
Ignoring BSIM parameter XW
Ignoring BSIM parameter XL
Ignoring BSIM parameter XW
Warning: Pd = 0 is less than W.
Warning: Ps = 0 is less than W.
Warning: Pd = 0 is less than W.
Warning: Ps = 0 is less than W.

Date: Sat Sep 12 12:22:57 2015
Total elapsed time: 0.384 seconds.

tnom = 27
temp = 27
method = trap
totiter = 6605
traniter = 0
tranpoints = 0
accept = 0
rejected = 0
matrix size = 5
fillins = 0
solver = Normal
Matrix Compiler1: 204 bytes object code size  0.1/0.1/[0.1]
Matrix Compiler2: 311 bytes object code size  0.0/0.1/[0.0]


